  
       XFOIL         Version 6.99
  
 Calculated polar for: NACA 4415                                       
  
 1 1 Reynolds number fixed          Mach number fixed         
  
 xtrf =   1.000 (top)        1.000 (bottom)  
 Mach =   0.000     Re =     9.000 e 6     Ncrit =   9.000
  
   alpha    CL        CD       CDp       CM     Top_Xtr  Bot_Xtr
  ------ -------- --------- --------- -------- -------- --------
 -17.900  -1.4781   0.01651   0.01290  -0.1079   0.9910   0.0120
 -17.800  -1.4701   0.01633   0.01272  -0.1075   0.9893   0.0120
 -17.700  -1.4616   0.01615   0.01253  -0.1072   0.9876   0.0121
 -17.600  -1.4531   0.01598   0.01235  -0.1069   0.9858   0.0121
 -17.500  -1.4445   0.01581   0.01217  -0.1067   0.9838   0.0121
 -17.400  -1.4357   0.01565   0.01199  -0.1064   0.9819   0.0122
 -17.300  -1.4269   0.01549   0.01182  -0.1062   0.9810   0.0122
 -17.200  -1.4181   0.01533   0.01166  -0.1059   0.9796   0.0122
 -17.100  -1.4093   0.01518   0.01150  -0.1056   0.9780   0.0123
 -17.000  -1.4004   0.01503   0.01134  -0.1054   0.9761   0.0123
 -16.900  -1.3916   0.01488   0.01118  -0.1051   0.9741   0.0123
 -16.800  -1.3827   0.01474   0.01103  -0.1048   0.9719   0.0123
 -16.700  -1.3735   0.01460   0.01088  -0.1045   0.9694   0.0123
 -16.600  -1.3640   0.01446   0.01073  -0.1044   0.9685   0.0124
 -16.500  -1.3544   0.01432   0.01058  -0.1042   0.9674   0.0124
 -16.400  -1.3448   0.01419   0.01044  -0.1041   0.9659   0.0124
 -16.300  -1.3353   0.01405   0.01029  -0.1039   0.9641   0.0124
 -16.200  -1.3257   0.01392   0.01015  -0.1037   0.9621   0.0124
 -16.100  -1.3164   0.01378   0.00999  -0.1035   0.9598   0.0125
 -16.000  -1.3072   0.01362   0.00982  -0.1032   0.9572   0.0126
 -15.900  -1.2977   0.01347   0.00966  -0.1030   0.9551   0.0127
 -15.800  -1.2880   0.01330   0.00949  -0.1029   0.9541   0.0129
 -15.700  -1.2783   0.01315   0.00933  -0.1028   0.9527   0.0130
 -15.600  -1.2685   0.01300   0.00917  -0.1026   0.9510   0.0132
 -15.500  -1.2588   0.01285   0.00901  -0.1025   0.9490   0.0133
 -15.400  -1.2490   0.01271   0.00886  -0.1023   0.9467   0.0135
 -15.300  -1.2393   0.01257   0.00872  -0.1021   0.9441   0.0136
 -15.200  -1.2295   0.01244   0.00857  -0.1020   0.9411   0.0137
 -15.100  -1.2194   0.01230   0.00843  -0.1018   0.9396   0.0138
 -15.000  -1.2092   0.01217   0.00829  -0.1018   0.9384   0.0139
 -14.900  -1.1990   0.01204   0.00816  -0.1017   0.9368   0.0140
 -14.800  -1.1888   0.01192   0.00803  -0.1016   0.9349   0.0141
 -14.700  -1.1785   0.01180   0.00790  -0.1015   0.9326   0.0142
 -14.600  -1.1683   0.01169   0.00778  -0.1013   0.9299   0.0143
 -14.500  -1.1580   0.01158   0.00766  -0.1012   0.9268   0.0144
 -14.400  -1.1477   0.01148   0.00755  -0.1011   0.9240   0.0145
 -14.300  -1.1371   0.01137   0.00744  -0.1011   0.9229   0.0146
 -14.200  -1.1265   0.01127   0.00733  -0.1010   0.9213   0.0146
 -14.100  -1.1158   0.01117   0.00722  -0.1010   0.9193   0.0147
 -14.000  -1.1053   0.01107   0.00712  -0.1009   0.9169   0.0147
 -13.900  -1.0947   0.01098   0.00701  -0.1008   0.9140   0.0148
 -13.800  -1.0841   0.01090   0.00692  -0.1007   0.9107   0.0148
 -13.700  -1.0735   0.01081   0.00682  -0.1007   0.9073   0.0149
 -13.600  -1.0626   0.01072   0.00672  -0.1007   0.9059   0.0149
 -13.500  -1.0518   0.01063   0.00663  -0.1006   0.9039   0.0149
 -13.400  -1.0410   0.01055   0.00654  -0.1006   0.9009   0.0149
 -13.300  -1.0305   0.01045   0.00642  -0.1005   0.8972   0.0151
 -13.200  -1.0200   0.01035   0.00630  -0.1004   0.8922   0.0153
 -13.100  -1.0094   0.01025   0.00619  -0.1003   0.8892   0.0155
 -13.000  -0.9987   0.01015   0.00608  -0.1003   0.8863   0.0157
 -12.900  -0.9881   0.01005   0.00597  -0.1002   0.8819   0.0160
 -12.800  -0.9775   0.00996   0.00586  -0.1001   0.8764   0.0162
 -12.700  -0.9668   0.00987   0.00576  -0.1000   0.8720   0.0164
 -12.600  -0.9560   0.00977   0.00566  -0.1000   0.8691   0.0165
 -12.500  -0.9452   0.00968   0.00556  -0.1000   0.8649   0.0167
 -12.400  -0.9344   0.00960   0.00547  -0.0999   0.8604   0.0168
 -12.300  -0.9236   0.00953   0.00538  -0.0999   0.8556   0.0170
 -12.200  -0.9125   0.00944   0.00529  -0.0999   0.8540   0.0171
 -12.100  -0.9014   0.00936   0.00521  -0.0998   0.8521   0.0172
 -12.000  -0.8903   0.00929   0.00513  -0.0998   0.8497   0.0173
 -11.900  -0.8793   0.00922   0.00505  -0.0998   0.8469   0.0174
 -11.800  -0.8682   0.00915   0.00497  -0.0998   0.8437   0.0175
 -11.700  -0.8572   0.00909   0.00489  -0.0998   0.8399   0.0175
 -11.600  -0.8460   0.00902   0.00482  -0.0998   0.8372   0.0176
 -11.500  -0.8347   0.00896   0.00475  -0.0998   0.8356   0.0176
 -11.400  -0.8235   0.00889   0.00468  -0.0998   0.8334   0.0177
 -11.300  -0.8123   0.00883   0.00460  -0.0998   0.8306   0.0178
 -11.200  -0.8013   0.00875   0.00452  -0.0998   0.8272   0.0181
 -11.100  -0.7902   0.00868   0.00443  -0.0998   0.8232   0.0184
 -11.000  -0.7792   0.00860   0.00435  -0.0998   0.8197   0.0187
 -10.900  -0.7680   0.00852   0.00426  -0.0998   0.8177   0.0190
 -10.800  -0.7568   0.00844   0.00418  -0.0998   0.8149   0.0193
 -10.700  -0.7457   0.00837   0.00411  -0.0998   0.8113   0.0195
 -10.600  -0.7346   0.00831   0.00404  -0.0997   0.8069   0.0198
 -10.500  -0.7234   0.00825   0.00396  -0.0997   0.8022   0.0200
 -10.400  -0.7121   0.00818   0.00390  -0.0998   0.8003   0.0202
 -10.300  -0.7008   0.00813   0.00383  -0.0998   0.7974   0.0203
 -10.200  -0.6894   0.00807   0.00377  -0.0998   0.7940   0.0205
 -10.100  -0.6782   0.00803   0.00371  -0.0998   0.7898   0.0206
 -10.000  -0.6669   0.00798   0.00366  -0.0998   0.7853   0.0206
  -9.900  -0.6554   0.00793   0.00360  -0.0998   0.7831   0.0207
  -9.800  -0.6440   0.00787   0.00354  -0.0999   0.7808   0.0209
  -9.700  -0.6327   0.00781   0.00347  -0.0999   0.7777   0.0213
  -9.600  -0.6215   0.00775   0.00340  -0.0999   0.7737   0.0217
  -9.500  -0.6103   0.00769   0.00333  -0.0999   0.7689   0.0222
  -9.400  -0.5989   0.00763   0.00327  -0.0999   0.7656   0.0225
  -9.300  -0.5875   0.00757   0.00321  -0.0999   0.7631   0.0228
  -9.200  -0.5761   0.00752   0.00315  -0.1000   0.7595   0.0231
  -9.100  -0.5648   0.00748   0.00309  -0.1000   0.7550   0.0234
  -9.000  -0.5535   0.00744   0.00304  -0.1000   0.7493   0.0236
  -8.900  -0.5420   0.00739   0.00299  -0.1000   0.7468   0.0237
  -8.800  -0.5305   0.00735   0.00294  -0.1001   0.7435   0.0238
  -8.700  -0.5190   0.00732   0.00289  -0.1001   0.7392   0.0239
  -8.600  -0.5077   0.00729   0.00285  -0.1001   0.7340   0.0241
  -8.500  -0.4962   0.00724   0.00279  -0.1001   0.7300   0.0245
  -8.400  -0.4848   0.00718   0.00273  -0.1002   0.7275   0.0252
  -8.300  -0.4733   0.00713   0.00268  -0.1002   0.7240   0.0257
  -8.200  -0.4620   0.00708   0.00262  -0.1002   0.7193   0.0263
  -8.100  -0.4507   0.00705   0.00258  -0.1002   0.7135   0.0266
  -8.000  -0.4391   0.00700   0.00253  -0.1003   0.7108   0.0270
  -7.900  -0.4276   0.00697   0.00249  -0.1003   0.7073   0.0272
  -7.800  -0.4161   0.00694   0.00245  -0.1004   0.7024   0.0274
  -7.700  -0.4047   0.00692   0.00241  -0.1004   0.6966   0.0275
  -7.600  -0.3931   0.00688   0.00236  -0.1004   0.6933   0.0280
  -7.500  -0.3816   0.00684   0.00231  -0.1005   0.6899   0.0287
  -7.400  -0.3702   0.00680   0.00227  -0.1005   0.6853   0.0294
  -7.300  -0.3588   0.00677   0.00223  -0.1005   0.6797   0.0299
  -7.200  -0.3473   0.00673   0.00218  -0.1006   0.6759   0.0304
  -7.100  -0.3357   0.00669   0.00214  -0.1006   0.6726   0.0308
  -7.000  -0.3241   0.00667   0.00211  -0.1007   0.6683   0.0311
  -6.900  -0.3127   0.00665   0.00208  -0.1007   0.6625   0.0313
  -6.800  -0.3011   0.00663   0.00204  -0.1007   0.6580   0.0316
  -6.700  -0.2895   0.00659   0.00200  -0.1008   0.6548   0.0324
  -6.600  -0.2781   0.00655   0.00196  -0.1008   0.6499   0.0334
  -6.500  -0.2667   0.00653   0.00192  -0.1008   0.6440   0.0342
  -6.400  -0.2552   0.00650   0.00189  -0.1009   0.6400   0.0348
  -6.300  -0.2435   0.00647   0.00185  -0.1009   0.6367   0.0352
  -6.200  -0.2320   0.00645   0.00183  -0.1010   0.6322   0.0356
  -6.100  -0.2205   0.00644   0.00180  -0.1010   0.6264   0.0359
  -6.000  -0.2089   0.00641   0.00176  -0.1011   0.6222   0.0370
  -5.900  -0.1973   0.00638   0.00173  -0.1011   0.6190   0.0380
  -5.800  -0.1858   0.00635   0.00170  -0.1012   0.6144   0.0388
  -5.700  -0.1744   0.00634   0.00167  -0.1012   0.6082   0.0395
  -5.600  -0.1628   0.00632   0.00164  -0.1012   0.6041   0.0400
  -5.500  -0.1511   0.00630   0.00162  -0.1013   0.6009   0.0404
  -5.400  -0.1395   0.00628   0.00159  -0.1014   0.5964   0.0413
  -5.300  -0.1282   0.00626   0.00156  -0.1014   0.5905   0.0429
  -5.200  -0.1165   0.00623   0.00153  -0.1014   0.5865   0.0439
  -5.100  -0.1049   0.00621   0.00150  -0.1015   0.5834   0.0447
  -5.000  -0.0933   0.00620   0.00148  -0.1015   0.5792   0.0453
  -4.900  -0.0818   0.00620   0.00146  -0.1016   0.5736   0.0459
  -4.800  -0.0702   0.00617   0.00144  -0.1016   0.5688   0.0474
  -4.700  -0.0586   0.00614   0.00141  -0.1017   0.5659   0.0488
  -4.600  -0.0470   0.00613   0.00139  -0.1017   0.5616   0.0498
  -4.500  -0.0355   0.00613   0.00137  -0.1018   0.5565   0.0507
  -4.400  -0.0239   0.00612   0.00135  -0.1018   0.5513   0.0512
  -4.300  -0.0122   0.00609   0.00133  -0.1019   0.5489   0.0532
  -4.200  -0.0007   0.00607   0.00131  -0.1020   0.5452   0.0550
  -4.100   0.0108   0.00606   0.00129  -0.1020   0.5404   0.0563
  -4.000   0.0223   0.00606   0.00128  -0.1020   0.5348   0.0571
  -3.900   0.0341   0.00604   0.00126  -0.1021   0.5322   0.0581
  -3.800   0.0457   0.00602   0.00124  -0.1022   0.5293   0.0602
  -3.700   0.0573   0.00600   0.00122  -0.1022   0.5256   0.0619
  -3.600   0.0688   0.00600   0.00121  -0.1023   0.5211   0.0633
  -3.500   0.0804   0.00600   0.00119  -0.1023   0.5158   0.0643
  -3.400   0.0921   0.00598   0.00118  -0.1024   0.5140   0.0664
  -3.300   0.1038   0.00595   0.00116  -0.1025   0.5114   0.0692
  -3.200   0.1154   0.00594   0.00115  -0.1025   0.5079   0.0708
  -3.100   0.1269   0.00595   0.00114  -0.1026   0.5032   0.0718
  -3.000   0.1385   0.00594   0.00113  -0.1026   0.4982   0.0735
  -2.900   0.1502   0.00591   0.00111  -0.1027   0.4966   0.0768
  -2.800   0.1618   0.00589   0.00109  -0.1028   0.4945   0.0792
  -2.700   0.1735   0.00589   0.00109  -0.1028   0.4915   0.0804
  -2.600   0.1851   0.00589   0.00108  -0.1029   0.4882   0.0827
  -2.500   0.1966   0.00588   0.00107  -0.1029   0.4834   0.0858
  -2.400   0.2082   0.00587   0.00106  -0.1030   0.4803   0.0883
  -2.300   0.2200   0.00585   0.00105  -0.1031   0.4788   0.0899
  -2.200   0.2317   0.00585   0.00104  -0.1032   0.4766   0.0920
  -2.100   0.2434   0.00582   0.00103  -0.1033   0.4745   0.0967
  -2.000   0.2549   0.00582   0.00103  -0.1033   0.4714   0.0993
  -1.900   0.2665   0.00582   0.00102  -0.1034   0.4681   0.1007
  -1.800   0.2781   0.00582   0.00102  -0.1034   0.4638   0.1037
  -1.700   0.2898   0.00579   0.00101  -0.1035   0.4623   0.1085
  -1.600   0.3016   0.00578   0.00100  -0.1036   0.4610   0.1114
  -1.500   0.3133   0.00577   0.00100  -0.1037   0.4593   0.1129
  -1.400   0.3250   0.00576   0.00099  -0.1038   0.4575   0.1174
  -1.300   0.3366   0.00575   0.00099  -0.1038   0.4550   0.1216
  -1.200   0.3481   0.00575   0.00099  -0.1039   0.4521   0.1246
  -1.100   0.3597   0.00576   0.00099  -0.1040   0.4487   0.1268
  -1.000   0.3714   0.00575   0.00099  -0.1040   0.4454   0.1325
  -0.900   0.3831   0.00573   0.00098  -0.1041   0.4446   0.1367
  -0.800   0.3949   0.00572   0.00098  -0.1042   0.4436   0.1394
  -0.700   0.4066   0.00571   0.00098  -0.1043   0.4422   0.1437
  -0.600   0.4182   0.00569   0.00098  -0.1044   0.4404   0.1497
  -0.500   0.4299   0.00569   0.00098  -0.1045   0.4382   0.1534
  -0.400   0.4415   0.00570   0.00098  -0.1045   0.4360   0.1551
  -0.300   0.4530   0.00570   0.00099  -0.1046   0.4332   0.1624
  -0.200   0.4646   0.00569   0.00099  -0.1047   0.4305   0.1674
  -0.100   0.4763   0.00569   0.00099  -0.1047   0.4279   0.1706
  -0.000   0.4881   0.00568   0.00099  -0.1048   0.4273   0.1758
   0.100   0.4998   0.00566   0.00099  -0.1049   0.4265   0.1824
   0.200   0.5115   0.00565   0.00100  -0.1050   0.4253   0.1866
   0.300   0.5232   0.00565   0.00100  -0.1051   0.4238   0.1896
   0.400   0.5348   0.00565   0.00101  -0.1052   0.4220   0.1972
   0.500   0.5463   0.00564   0.00101  -0.1052   0.4199   0.2028
   0.600   0.5579   0.00566   0.00102  -0.1053   0.4175   0.2063
   0.700   0.5694   0.00566   0.00103  -0.1054   0.4148   0.2142
   0.800   0.5810   0.00565   0.00104  -0.1054   0.4118   0.2203
   0.900   0.5927   0.00565   0.00105  -0.1055   0.4104   0.2240
   1.000   0.6044   0.00564   0.00105  -0.1056   0.4098   0.2327
   1.100   0.6161   0.00563   0.00106  -0.1057   0.4088   0.2386
   1.200   0.6278   0.00563   0.00107  -0.1058   0.4074   0.2424
   1.300   0.6393   0.00563   0.00108  -0.1059   0.4053   0.2527
   1.400   0.6508   0.00563   0.00109  -0.1059   0.4031   0.2581
   1.500   0.6622   0.00565   0.00111  -0.1060   0.3999   0.2627
   1.600   0.6736   0.00566   0.00112  -0.1060   0.3965   0.2723
   1.700   0.6852   0.00566   0.00113  -0.1061   0.3935   0.2784
   1.800   0.6968   0.00566   0.00114  -0.1062   0.3925   0.2871
   1.900   0.7084   0.00565   0.00115  -0.1063   0.3911   0.2948
   2.000   0.7200   0.00566   0.00117  -0.1063   0.3889   0.3002
   2.100   0.7313   0.00567   0.00119  -0.1064   0.3860   0.3121
   2.200   0.7425   0.00569   0.00121  -0.1064   0.3823   0.3173
   2.300   0.7538   0.00570   0.00123  -0.1064   0.3777   0.3290
   2.400   0.7654   0.00571   0.00124  -0.1065   0.3760   0.3363
   2.500   0.7769   0.00570   0.00126  -0.1066   0.3744   0.3485
   2.600   0.7883   0.00571   0.00128  -0.1066   0.3717   0.3572
   2.700   0.7994   0.00573   0.00131  -0.1066   0.3678   0.3706
   2.800   0.8105   0.00575   0.00133  -0.1066   0.3632   0.3839
   2.900   0.8218   0.00575   0.00135  -0.1067   0.3598   0.3971
   3.000   0.8332   0.00573   0.00137  -0.1067   0.3580   0.4181
   3.100   0.8444   0.00571   0.00140  -0.1068   0.3552   0.4432
   3.300   0.8662   0.00573   0.00147  -0.1067   0.3453   0.4890
   3.400   0.8775   0.00572   0.00149  -0.1068   0.3427   0.5092
   3.500   0.8887   0.00572   0.00152  -0.1068   0.3401   0.5262
   3.600   0.8996   0.00574   0.00156  -0.1068   0.3356   0.5432
   3.800   0.9216   0.00578   0.00163  -0.1068   0.3265   0.5760
   3.900   0.9328   0.00580   0.00166  -0.1068   0.3234   0.5903
   4.000   0.9435   0.00583   0.00170  -0.1067   0.3187   0.6072
   4.100   0.9542   0.00587   0.00175  -0.1066   0.3118   0.6228
   4.200   0.9653   0.00587   0.00178  -0.1067   0.3092   0.6399
   4.300   0.9762   0.00590   0.00182  -0.1066   0.3050   0.6553
   4.400   0.9867   0.00596   0.00188  -0.1065   0.2988   0.6687
   4.500   0.9976   0.00598   0.00191  -0.1065   0.2940   0.6845
   4.600   1.0085   0.00601   0.00195  -0.1065   0.2903   0.7011
   4.700   1.0188   0.00606   0.00202  -0.1064   0.2839   0.7185
   4.900   1.0404   0.00612   0.00210  -0.1063   0.2751   0.7526
   5.000   1.0506   0.00618   0.00217  -0.1061   0.2684   0.7724
   5.100   1.0612   0.00620   0.00222  -0.1060   0.2629   0.7923
   5.300   1.0817   0.00629   0.00234  -0.1057   0.2524   0.8345
   5.400   1.0921   0.00631   0.00239  -0.1056   0.2470   0.8585
   5.500   1.1024   0.00634   0.00245  -0.1055   0.2429   0.8799
   5.600   1.1119   0.00639   0.00253  -0.1052   0.2365   0.9030
   5.700   1.1217   0.00642   0.00258  -0.1049   0.2312   0.9231
   5.800   1.1311   0.00646   0.00264  -0.1045   0.2271   0.9431
   5.900   1.1394   0.00653   0.00272  -0.1039   0.2209   0.9608
   6.000   1.1483   0.00659   0.00277  -0.1034   0.2156   0.9743
   6.100   1.1583   0.00666   0.00284  -0.1032   0.2108   0.9842
   6.200   1.1689   0.00678   0.00291  -0.1031   0.2032   0.9915
   6.400   1.1942   0.00697   0.00305  -0.1040   0.1931   0.9985
   6.500   1.2050   0.00707   0.00311  -0.1039   0.1864   1.0000
   6.600   1.2151   0.00716   0.00318  -0.1038   0.1821   1.0000
   6.700   1.2244   0.00729   0.00327  -0.1035   0.1743   1.0000
   6.800   1.2348   0.00736   0.00332  -0.1034   0.1709   1.0000
   6.900   1.2443   0.00748   0.00341  -0.1031   0.1653   1.0000
   7.000   1.2540   0.00760   0.00349  -0.1028   0.1585   1.0000
   7.100   1.2640   0.00769   0.00355  -0.1027   0.1547   1.0000
   7.200   1.2731   0.00783   0.00366  -0.1023   0.1478   1.0000
   7.300   1.2833   0.00791   0.00372  -0.1022   0.1438   1.0000
   7.400   1.2928   0.00803   0.00380  -0.1019   0.1392   1.0000
   7.500   1.3020   0.00817   0.00390  -0.1016   0.1319   1.0000
   7.600   1.3121   0.00825   0.00397  -0.1014   0.1292   1.0000
   7.700   1.3213   0.00838   0.00407  -0.1011   0.1245   1.0000
   7.800   1.3308   0.00849   0.00415  -0.1008   0.1191   1.0000
   7.900   1.3404   0.00860   0.00424  -0.1006   0.1156   1.0000
   8.000   1.3492   0.00875   0.00435  -0.1002   0.1097   1.0000
   8.100   1.3590   0.00884   0.00442  -0.1000   0.1064   1.0000
   8.200   1.3683   0.00896   0.00451  -0.0997   0.1029   1.0000
   8.300   1.3772   0.00910   0.00462  -0.0993   0.0977   1.0000
   8.400   1.3869   0.00919   0.00470  -0.0991   0.0950   1.0000
   8.500   1.3958   0.00933   0.00481  -0.0988   0.0914   1.0000
   8.600   1.4046   0.00946   0.00491  -0.0984   0.0865   1.0000
   8.700   1.4142   0.00955   0.00499  -0.0981   0.0846   1.0000
   8.800   1.4231   0.00968   0.00510  -0.0978   0.0817   1.0000
   8.900   1.4319   0.00981   0.00520  -0.0974   0.0777   1.0000
   9.000   1.4413   0.00990   0.00528  -0.0971   0.0760   1.0000
   9.100   1.4502   0.01002   0.00538  -0.0968   0.0737   1.0000
   9.200   1.4582   0.01017   0.00551  -0.0963   0.0697   1.0000
   9.300   1.4674   0.01027   0.00559  -0.0959   0.0679   1.0000
   9.400   1.4760   0.01038   0.00569  -0.0955   0.0659   1.0000
   9.500   1.4841   0.01052   0.00581  -0.0950   0.0633   1.0000
   9.600   1.4927   0.01064   0.00591  -0.0946   0.0607   1.0000
   9.700   1.5012   0.01073   0.00600  -0.0942   0.0597   1.0000
   9.800   1.5089   0.01085   0.00611  -0.0936   0.0581   1.0000
   9.900   1.5157   0.01099   0.00623  -0.0928   0.0557   1.0000
  10.000   1.5233   0.01111   0.00634  -0.0922   0.0537   1.0000
  10.100   1.5312   0.01122   0.00644  -0.0916   0.0527   1.0000
  10.200   1.5385   0.01135   0.00656  -0.0910   0.0512   1.0000
  10.300   1.5454   0.01150   0.00670  -0.0903   0.0493   1.0000
  10.400   1.5531   0.01163   0.00681  -0.0897   0.0475   1.0000
  10.500   1.5611   0.01174   0.00692  -0.0892   0.0467   1.0000
  10.600   1.5687   0.01186   0.00704  -0.0887   0.0457   1.0000
  10.700   1.5758   0.01202   0.00718  -0.0880   0.0444   1.0000
  10.800   1.5829   0.01217   0.00733  -0.0874   0.0428   1.0000
  10.900   1.5907   0.01230   0.00745  -0.0869   0.0417   1.0000
  11.000   1.5987   0.01242   0.00757  -0.0864   0.0411   1.0000
  11.100   1.6061   0.01256   0.00770  -0.0858   0.0402   1.0000
  11.200   1.6128   0.01273   0.00786  -0.0851   0.0391   1.0000
  11.300   1.6195   0.01290   0.00802  -0.0845   0.0375   1.0000
  11.400   1.6271   0.01304   0.00816  -0.0839   0.0366   1.0000
  11.500   1.6348   0.01318   0.00830  -0.0835   0.0361   1.0000
  11.600   1.6420   0.01334   0.00845  -0.0829   0.0353   1.0000
  11.700   1.6487   0.01352   0.00862  -0.0822   0.0345   1.0000
  11.800   1.6551   0.01370   0.00880  -0.0816   0.0335   1.0000
  11.900   1.6620   0.01388   0.00897  -0.0810   0.0323   1.0000
  12.000   1.6696   0.01403   0.00912  -0.0805   0.0320   1.0000
  12.100   1.6770   0.01418   0.00928  -0.0800   0.0316   1.0000
  12.200   1.6839   0.01436   0.00945  -0.0794   0.0311   1.0000
  12.300   1.6904   0.01456   0.00965  -0.0788   0.0304   1.0000
  12.400   1.6967   0.01477   0.00985  -0.0781   0.0297   1.0000
  12.500   1.7031   0.01497   0.01005  -0.0775   0.0287   1.0000
  12.600   1.7099   0.01516   0.01024  -0.0769   0.0280   1.0000
  12.700   1.7167   0.01535   0.01043  -0.0764   0.0277   1.0000
  12.800   1.7231   0.01556   0.01064  -0.0758   0.0273   1.0000
  12.900   1.7296   0.01577   0.01085  -0.0752   0.0268   1.0000
  13.000   1.7358   0.01600   0.01108  -0.0746   0.0262   1.0000
  13.100   1.7420   0.01624   0.01131  -0.0740   0.0256   1.0000
  13.200   1.7476   0.01649   0.01156  -0.0733   0.0249   1.0000
  13.300   1.7535   0.01673   0.01180  -0.0727   0.0243   1.0000
  13.400   1.7601   0.01695   0.01202  -0.0722   0.0242   1.0000
  13.500   1.7667   0.01717   0.01224  -0.0717   0.0239   1.0000
  13.600   1.7731   0.01740   0.01248  -0.0711   0.0236   1.0000
  13.700   1.7787   0.01767   0.01275  -0.0705   0.0233   1.0000
  13.800   1.7842   0.01795   0.01303  -0.0699   0.0229   1.0000
  13.900   1.7897   0.01824   0.01332  -0.0693   0.0225   1.0000
  14.000   1.7953   0.01853   0.01361  -0.0687   0.0220   1.0000
  14.100   1.8006   0.01884   0.01392  -0.0680   0.0214   1.0000
  14.200   1.8057   0.01915   0.01424  -0.0674   0.0210   1.0000
  14.300   1.8116   0.01943   0.01452  -0.0669   0.0209   1.0000
  14.400   1.8174   0.01971   0.01480  -0.0663   0.0207   1.0000
  14.500   1.8233   0.01999   0.01509  -0.0658   0.0205   1.0000
  14.600   1.8282   0.02033   0.01544  -0.0652   0.0202   1.0000
  14.700   1.8328   0.02070   0.01581  -0.0646   0.0198   1.0000
  14.800   1.8376   0.02106   0.01617  -0.0640   0.0195   1.0000
  14.900   1.8424   0.02143   0.01654  -0.0634   0.0191   1.0000
  15.000   1.8467   0.02183   0.01694  -0.0628   0.0188   1.0000
  15.100   1.8509   0.02225   0.01736  -0.0622   0.0183   1.0000
  15.200   1.8558   0.02262   0.01774  -0.0616   0.0179   1.0000
  15.300   1.8611   0.02295   0.01808  -0.0611   0.0179   1.0000
  15.400   1.8656   0.02336   0.01849  -0.0606   0.0178   1.0000
  15.500   1.8700   0.02377   0.01891  -0.0600   0.0176   1.0000
  15.600   1.8748   0.02416   0.01931  -0.0595   0.0175   1.0000
  15.700   1.8795   0.02456   0.01971  -0.0590   0.0173   1.0000
  15.800   1.8831   0.02504   0.02020  -0.0584   0.0171   1.0000
  15.900   1.8868   0.02553   0.02070  -0.0579   0.0169   1.0000
  16.000   1.8909   0.02599   0.02117  -0.0574   0.0167   1.0000
  16.100   1.8945   0.02649   0.02167  -0.0568   0.0164   1.0000
  16.200   1.8972   0.02708   0.02226  -0.0562   0.0161   1.0000
  16.300   1.9008   0.02760   0.02279  -0.0557   0.0159   1.0000
  16.400   1.9045   0.02811   0.02331  -0.0552   0.0155   1.0000
  16.500   1.9072   0.02870   0.02391  -0.0547   0.0153   1.0000
  16.600   1.9107   0.02924   0.02446  -0.0542   0.0152   1.0000
  16.700   1.9148   0.02974   0.02497  -0.0538   0.0151   1.0000
  16.800   1.9187   0.03026   0.02550  -0.0534   0.0150   1.0000
  16.900   1.9216   0.03089   0.02614  -0.0529   0.0150   1.0000
  17.000   1.9249   0.03147   0.02674  -0.0525   0.0148   1.0000
  17.100   1.9285   0.03203   0.02730  -0.0521   0.0147   1.0000
  17.200   1.9311   0.03270   0.02798  -0.0517   0.0146   1.0000
  17.300   1.9332   0.03341   0.02871  -0.0512   0.0144   1.0000
  17.400   1.9360   0.03406   0.02936  -0.0508   0.0142   1.0000
  17.500   1.9385   0.03475   0.03006  -0.0504   0.0141   1.0000
  17.600   1.9396   0.03558   0.03090  -0.0500   0.0139   1.0000
  17.700   1.9414   0.03632   0.03166  -0.0496   0.0137   1.0000
  17.800   1.9431   0.03709   0.03243  -0.0492   0.0134   1.0000
  17.900   1.9441   0.03795   0.03331  -0.0488   0.0132   1.0000
  18.000   1.9458   0.03874   0.03411  -0.0484   0.0130   1.0000
  18.100   1.9478   0.03950   0.03488  -0.0481   0.0128   1.0000
  18.200   1.9490   0.04038   0.03578  -0.0478   0.0127   1.0000
  18.300   1.9512   0.04114   0.03655  -0.0475   0.0127   1.0000
  18.400   1.9538   0.04186   0.03728  -0.0472   0.0127   1.0000
  18.500   1.9548   0.04278   0.03822  -0.0469   0.0126   1.0000
  18.600   1.9562   0.04364   0.03910  -0.0467   0.0126   1.0000
  18.700   1.9583   0.04443   0.03990  -0.0464   0.0125   1.0000
  18.800   1.9592   0.04537   0.04085  -0.0462   0.0124   1.0000
  18.900   1.9596   0.04634   0.04184  -0.0459   0.0124   1.0000
  19.000   1.9609   0.04721   0.04272  -0.0457   0.0123   1.0000
  19.100   1.9615   0.04817   0.04370  -0.0454   0.0122   1.0000
  19.200   1.9609   0.04929   0.04483  -0.0452   0.0121   1.0000
  19.300   1.9618   0.05022   0.04578  -0.0450   0.0120   1.0000
  19.400   1.9620   0.05124   0.04682  -0.0448   0.0119   1.0000
  19.500   1.9605   0.05248   0.04807  -0.0446   0.0118   1.0000
  19.600   1.9607   0.05351   0.04912  -0.0444   0.0117   1.0000
  19.700   1.9603   0.05461   0.05024  -0.0443   0.0116   1.0000
  19.800   1.9584   0.05593   0.05158  -0.0441   0.0115   1.0000
  19.900   1.9579   0.05704   0.05270  -0.0440   0.0113   1.0000
  20.000   1.9570   0.05822   0.05390  -0.0439   0.0112   1.0000
